<?xml version="1.0" encoding="UTF-8"?>

<!-- generated on 01/23/21 15:59:32 by Eclipse SUMO duarouter Version 1.8.0
<configuration xmlns:xsi="http://www.w3.org/2001/XMLSchema-instance" xsi:noNamespaceSchemaLocation="http://sumo.dlr.de/xsd/duarouterConfiguration.xsd">

    <input>
        <net-file value="test.net.xml"/>
        <route-files value="trips.trips.xml"/>
    </input>

    <output>
        <output-file value="map.rou.xml"/>
        <alternatives-output value="map.rou.alt.xml"/>
    </output>

    <time>
        <begin value="0"/>
        <end value="1000"/>
	<step-length value="0.1"/>
    </time>

    <report>
        <no-warnings value="true"/>
        <ignore-errors value="true"/>
        <no-step-log value="true"/>
    </report>

</configuration>
-->

<routes xmlns:xsi="http://www.w3.org/2001/XMLSchema-instance" xsi:noNamespaceSchemaLocation="http://sumo.dlr.de/xsd/routes_file.xsd">
    <vehicle id="0" depart="0.00">
        <route edges="341671964#3 341671964#4 341671964#5 341671964#6 341671964#7 341671964#8 341671964#9 341671964#10 341671964#11 341671964#12 794061367#0 794061367#1 794061367#2 794061367#3 794061367#4 794061367#5 794061352#0 794061352#1 795084570#0 795084570#1 795084570#2 795084570#3 795084570#4 795084570#5 795084569#0 795084569#1 795084569#2 795084569#3 15469789#0 15469789#1 15469789#2 15469789#3 15469789#4 15469789#5 15469789#6 15469789#7 795084568 392002072#0 392002072#1 392002072#2 14479140 -14479140"/>
    </vehicle>
    
</routes>
